tools/ieee8500_legal_mixed_m1_snapshot/files/RESITING_SCREEN/IEEE8500_MAY01_20260916/B0_PLACEMENT_GATES.csv
placement,max_phase_line_loading_pu,Vmin_pu,Vmax_pu,max_transformer_phase_current_pu,max_transformer_winding_kva_pu,physical_pass,slots,runtime_seconds,critical_witness
legal_mixed_M1,0.9834282158077193,0.9510138045932084,1.0399999843804728,0.2831852025180248,0.287688637730594,True,10,0.7870995000121184,Line.tpx21459660c0|t2|sx3101194c.1.2|node1
legal_mixed_M2,0.9834280370626521,0.9510128697934069,1.0399999843803582,0.2831852208049231,0.287688638066561,True,10,0.7928022999985842,Line.tpx21459660c0|t2|sx3101194c.1.2|node1
legal_mixed_M3,0.9834281664981973,0.9510138501483628,1.039999984380466,0.2831851939467096,0.2876886373470727,True,10,1.5607788999914192,Line.tpx21459660c0|t2|sx3101194c.1.2|node1
stress_pair_M1,0.9850810707168844,0.950924524374544,1.0399999841068692,0.2832987182638074,0.28779849137615854,True,10,2.7131196999980602,Line.tpx21459660c0|t2|sx3101194c.1.2|node1
stress_pair_M2,0.9850808910080389,0.9509235895491757,1.0399999841067544,0.2832987366844146,0.2877984917057294,True,10,2.7365069999941625,Line.tpx21459660c0|t2|sx3101194c.1.2|node1
stress_pair_M3,0.9850810212622907,0.9509245697491188,1.0399999841068617,0.2832987096883771,0.287798490956922,True,10,2.5867047000065213,Line.tpx21459660c0|t2|sx3101194c.1.2|node1
remote_receivers_M1,0.9817450498386956,0.9521596709314544,1.0399999859807432,0.28275667433317164,0.287405319270201,True,10,2.6656843000091612,Line.tpx21459660c0|t2|sx3101194c.1.2|node1
remote_receivers_M2,0.981744871607846,0.9521587353818644,1.039999985980629,0.2827566920195409,0.2874053196361075,True,10,2.6426956999930553,Line.tpx21459660c0|t2|sx3101194c.1.2|node1
remote_receivers_M3,0.9817450008158948,0.9521597163678526,1.0399999859807358,0.28275666600663474,0.2874053189247545,True,10,2.542000300003565,Line.tpx21459660c0|t2|sx3101194c.1.2|node1
